Circuit: * C:\Users\José Manuel\Documents\Universidad\4º\Instrumentación y Acondicionamiento de Señal\Trabajo\git\PMOS_GAIN-STAGE.asc

Model "pmos-sh": Oxide thickness thinner than recommended for a level 1 MOSFET.
Instance "m1": Length shorter than recommended for a level 1 MOSFET.
Instance "m1": Width narrower than recommended for a level 1 MOSFET.
Direct Newton iteration for .op point succeeded.

Date: Sun May 02 19:16:55 2021
Total elapsed time: 0.058 seconds.

tnom = 27
temp = 27
method = trap
totiter = 6
traniter = 0
tranpoints = 0
accept = 0
rejected = 0
matrix size = 5
fillins = 0
solver = Normal
Matrix Compiler1:      12 opcodes
Matrix Compiler2: 311 bytes object code size
