Circuit: * C:\Users\José Manuel\Documents\Universidad\4º\Instrumentación y Acondicionamiento de Señal\Trabajo\git\PMOS_CS_RD.asc

Ignoring BSIM parameter XL
Ignoring BSIM parameter XW
WARNING: Node N002 is floating.

WARNING: Less than two connections to node N002.  This node is used by M1.
Direct Newton iteration for .op point succeeded.

Date: Sat May 08 18:36:59 2021
Total elapsed time: 0.062 seconds.

tnom = 27
temp = 27
method = trap
totiter = 24
traniter = 0
tranpoints = 0
accept = 0
rejected = 0
matrix size = 6
fillins = 0
solver = Normal
Matrix Compiler1:      10 opcodes
Matrix Compiler2: 414 bytes object code size
