Circuit: * C:\Users\José Manuel\Documents\Universidad\4º\Instrumentación y Acondicionamiento de Señal\Trabajo\git\PMOS_CS_RD.asc

Ignoring BSIM parameter XL
Ignoring BSIM parameter XW
Direct Newton iteration for .op point succeeded.

Date: Tue May 18 12:16:15 2021
Total elapsed time: 0.078 seconds.

tnom = 27
temp = 27
method = trap
totiter = 4
traniter = 0
tranpoints = 0
accept = 0
rejected = 0
matrix size = 5
fillins = 0
solver = Normal
Matrix Compiler1:       7 opcodes
Matrix Compiler2: 301 bytes object code size
