Circuit: * C:\Users\José Manuel\Documents\Universidad\4º\Instrumentación y Acondicionamiento de Señal\Trabajo\git\PMOS_CS_CMOSLOAD.asc

Ignoring BSIM parameter XL
Ignoring BSIM parameter XW
Ignoring BSIM parameter XL
Ignoring BSIM parameter XW
Direct Newton iteration for .op point succeeded.


Measurement "v(vin)" FAIL'ed


Date: Sat Jun 19 22:38:11 2021
Total elapsed time: 0.094 seconds.

tnom = 27
temp = 27
method = trap
totiter = 10
traniter = 0
tranpoints = 0
accept = 0
rejected = 0
matrix size = 6
fillins = 0
solver = Normal
Matrix Compiler1: 182 bytes object code size
Matrix Compiler2: 408 bytes object code size
